@<TRIPOS>MOLECULE
    TYS
   24    24     0     0     0
SMALL
USER_CHARGES

@<TRIPOS>ATOM
      1 N           1.2010    0.8470    0.0000 N        0 TYS0       0.0000
      2 H           1.2010    1.8470    0.0000 H        0 TYS0       0.0000
      3 CA          0.0000    0.0000    0.0000 C        0 TYS0       0.0000
      4 HA          0.0000   -0.5570   -0.8310 H        0 TYS0       0.0000
      5 CB         -0.0380   -0.9999    1.1774 C        0 TYS0       0.0000
      6 CG          1.2325   -1.8208    1.1819 C        0 TYS0       0.0000
      7 CD1         1.6212   -2.5563    0.0583 C        0 TYS0       0.0000
      8 CD2         2.0921   -1.6706    2.2788 C        0 TYS0       0.0000
      9 CE1         2.8364   -3.2319    0.0758 C        0 TYS0       0.0000
     10 CE2         3.3249   -2.3269    2.2805 C        0 TYS0       0.0000
     11 CZ          3.6747   -3.1021    1.1799 C        0 TYS0       0.0000
     12 OH          4.8793   -3.7638    1.2899 O        0 TYS0       0.0000
     13 S           4.9407   -5.1482    2.2095 S        0 TYS0       0.0000
     14 O1          4.3468   -4.8156    3.4781 O        0 TYS0       0.0000
     15 O2          4.3631   -6.0714    1.2833 O        0 TYS0       0.0000
     16 O3          6.3888   -5.4504    2.3306 O        0 TYS0       0.0000
     17 H1         -0.1201   -0.4434    2.1227 H        0 TYS0       0.0000
     18 H2         -0.9078   -1.6649    1.0710 H        0 TYS0       0.0000
     19 H3          0.9731   -2.6001   -0.8295 H        0 TYS0       0.0000
     20 H4          1.7981   -1.0409    3.1315 H        0 TYS0       0.0000
     21 H5          3.1328   -3.8631   -0.7750 H        0 TYS0       0.0000
     22 H6          4.0077   -2.2324    3.1377 H        0 TYS0       0.0000
     23 C          -1.2500    0.8810    0.0000 C        0 TYS0       0.0000
     24 O          -2.1850    0.6600   -0.7840 O        0 TYS0       0.0000
@<TRIPOS>BOND
     1     1     2    1
     2     1     3    1
     3     3     4    1
     4     3     5    1
     5     3    23    1
     6     5     6    1
     7     5    17    1
     8     5    18    1
     9     6     7    2
    10     6     8    1
    11     7     9    1
    12     7    19    1
    13     8    10    2
    14     8    20    1
    15     9    11    2
    16     9    21    1
    17    10    11    1
    18    10    22    1
    19    11    12    1
    20    12    13    1
    21    13    14    2
    22    13    15    2
    23    13    16    1
    24    23    24    2
